Version 4
SHEET 1 1140 680
WIRE 400 -464 192 -464
WIRE 512 -464 496 -464
WIRE 624 -464 608 -464
WIRE 80 -336 16 -336
WIRE 16 -304 16 -336
WIRE 576 -208 528 -208
WIRE 720 -208 656 -208
WIRE 16 -192 16 -224
WIRE 720 -64 720 -208
WIRE 720 -64 624 -64
WIRE 304 -48 240 -48
WIRE 416 -48 384 -48
WIRE 464 -48 416 -48
WIRE 528 -48 528 -208
WIRE 560 -48 528 -48
WIRE 656 -32 624 -32
WIRE 656 0 656 -32
WIRE 720 0 720 -64
WIRE 192 16 192 -464
WIRE 240 16 240 -48
WIRE 240 16 192 16
WIRE 192 64 192 16
WIRE 416 96 416 -48
WIRE 464 96 416 96
WIRE 720 112 720 80
WIRE 720 112 528 112
WIRE 960 112 720 112
WIRE -48 128 -48 96
WIRE 112 128 112 96
WIRE 464 128 416 128
WIRE 416 160 416 128
WIRE 192 176 192 144
WIRE -48 256 -48 208
WIRE 112 256 112 208
WIRE 416 272 416 240
FLAG 496 144 Vcc
IOPIN 496 144 In
FLAG 496 80 Vee
IOPIN 496 80 In
FLAG 960 112 planta
IOPIN 960 112 Out
FLAG -48 256 0
FLAG 112 256 0
FLAG 112 96 Vee
IOPIN 112 96 Out
FLAG -48 96 Vcc
IOPIN -48 96 Out
FLAG 416 272 0
FLAG 592 -80 Vcc
IOPIN 592 -80 In
FLAG 592 -16 Vee
IOPIN 592 -16 In
FLAG 656 80 0
FLAG 16 -192 0
FLAG 80 -336 integrador
IOPIN 80 -336 Out
FLAG 608 -464 ideal
FLAG 192 176 0
SYMBOL Opamps\\TL072 496 176 M180
SYMATTR InstName U1
SYMBOL cap 528 -64 R90
WINDOW 0 0 32 VBottom 2
WINDOW 3 32 32 VTop 2
SYMATTR InstName C1
SYMATTR Value 1µ
SYMBOL res 400 -64 R90
WINDOW 0 0 56 VBottom 2
WINDOW 3 32 56 VTop 2
SYMATTR InstName R1
SYMATTR Value 1Meg
SYMBOL voltage -48 112 R0
SYMATTR InstName V1
SYMATTR Value {V_Ao}
SYMBOL voltage 112 224 M180
WINDOW 0 24 96 Left 2
WINDOW 3 24 16 Left 2
SYMATTR InstName V2
SYMATTR Value {V_Ao}
SYMBOL Opamps\\TL072 592 -112 M0
SYMATTR InstName U2
SYMBOL res 704 -16 R0
SYMATTR InstName R3
SYMATTR Value 100k
SYMBOL res 672 -224 R90
WINDOW 0 0 56 VBottom 2
WINDOW 3 32 56 VTop 2
SYMATTR InstName R2
SYMATTR Value 100k
SYMBOL voltage 16 -320 R0
WINDOW 123 24 44 Left 2
WINDOW 39 0 0 Left 0
SYMATTR Value2 AC 1
SYMATTR InstName V3
SYMATTR Value ""
SYMBOL Circuitos2\\Bloques\\integrador 448 -464 R0
SYMATTR InstName U4
SYMBOL voltage 192 48 R0
WINDOW 123 24 124 Left 2
WINDOW 39 0 0 Left 0
SYMATTR Value2 AC 1
SYMATTR InstName V4
SYMATTR Value SINE(0 1 1k)
SYMBOL res 400 144 R0
SYMATTR InstName R4
SYMATTR Value 1k
SYMBOL res 640 -16 R0
SYMATTR InstName R5
SYMATTR Value 10k
SYMBOL Circuitos2\\Bloques\\ganancia 560 -464 R0
SYMATTR SpiceLine K=1000
SYMATTR InstName U3
TEXT 168 296 Left 2 !.param V_Ao=15
TEXT 416 488 Left 2 !.ac dec 300 .1Hz 100kHz
