Version 4
SHEET 1 1100 680
WIRE 736 160 384 160
WIRE 176 192 -16 192
WIRE 384 192 384 160
WIRE -16 208 -16 192
WIRE 336 208 272 208
WIRE 336 256 320 256
WIRE 320 320 320 256
WIRE 384 320 384 272
WIRE -16 352 -16 288
WIRE 736 400 736 160
FLAG 320 320 0
FLAG 384 320 0
FLAG -16 352 0
SYMBOL Circuitos2\\Bloques\\restador2 240 208 R0
SYMATTR InstName U2
SYMBOL e 384 176 R0
SYMATTR InstName E1
SYMATTR Value Laplace=5.903e38/(2.99e31*s^2+s*2.818e35 +5.903e38)
SYMBOL voltage -16 192 R0
WINDOW 123 24 124 Left 2
WINDOW 39 0 0 Left 0
SYMATTR InstName V1
SYMATTR Value ""
SYMATTR Value2 AC 1
TEXT 368 440 Left 2 !.ac dec 300 1Hz 100kHz
