Version 4
SHEET 1 3188 1220
WIRE 192 -128 160 -128
WIRE 384 -128 272 -128
WIRE 464 -128 384 -128
WIRE 608 -128 544 -128
WIRE 1184 -128 1152 -128
WIRE 1296 -128 1248 -128
WIRE 1440 -128 1296 -128
WIRE 1296 -32 1296 -128
WIRE 1344 -32 1296 -32
WIRE 384 -16 384 -128
WIRE 432 -16 384 -16
WIRE 1440 -16 1440 -128
WIRE 1440 -16 1408 -16
WIRE 1488 -16 1440 -16
WIRE 608 0 608 -128
WIRE 608 0 496 0
WIRE 672 0 608 0
WIRE 1040 0 976 0
WIRE 1152 0 1152 -128
WIRE 1152 0 1120 0
WIRE 1184 0 1152 0
WIRE 1296 0 1264 0
WIRE 1344 0 1296 0
WIRE 192 16 160 16
WIRE 384 16 272 16
WIRE 432 16 384 16
WIRE 384 48 384 16
WIRE 1296 48 1296 0
WIRE 640 160 592 160
WIRE 1296 176 1296 112
WIRE 384 208 384 128
WIRE 1408 256 1408 224
WIRE 1568 256 1568 224
WIRE 208 288 160 288
WIRE 320 288 288 288
WIRE 352 288 320 288
WIRE 480 288 432 288
WIRE 672 304 640 304
WIRE 800 304 752 304
WIRE 1408 384 1408 336
WIRE 1568 384 1568 336
WIRE 320 432 320 288
WIRE 352 432 320 432
WIRE 480 448 480 288
WIRE 480 448 416 448
WIRE 496 448 480 448
WIRE 640 448 640 304
WIRE 640 448 576 448
WIRE 672 448 640 448
WIRE 352 464 272 464
WIRE 800 464 800 304
WIRE 800 464 736 464
WIRE 848 464 800 464
WIRE 976 464 944 464
WIRE 672 480 592 480
WIRE 272 496 272 464
WIRE 1280 496 1232 496
WIRE 1424 496 1360 496
WIRE 592 512 592 480
WIRE 272 624 272 576
WIRE 592 640 592 592
WIRE 1424 640 1424 496
WIRE 1424 640 1328 640
WIRE 1008 656 912 656
WIRE 1120 656 1088 656
WIRE 1168 656 1120 656
WIRE 1232 656 1232 496
WIRE 1264 656 1232 656
WIRE 1360 672 1328 672
WIRE 1360 704 1360 672
WIRE 1424 704 1424 640
WIRE 432 720 400 720
WIRE 544 720 496 720
WIRE 400 800 400 720
WIRE 432 800 400 800
WIRE 544 800 544 720
WIRE 544 800 512 800
WIRE 736 800 704 800
WIRE 864 800 816 800
WIRE 1120 800 1120 656
WIRE 1168 800 1120 800
WIRE 1424 816 1424 784
WIRE 1424 816 1232 816
WIRE 1536 816 1424 816
WIRE 1168 832 1120 832
WIRE 1120 864 1120 832
WIRE 304 880 272 880
WIRE 272 928 272 880
WIRE 272 928 240 928
WIRE 368 928 368 880
WIRE 400 928 400 800
WIRE 400 928 368 928
WIRE 432 928 400 928
WIRE 544 944 544 800
WIRE 544 944 496 944
WIRE 576 944 544 944
WIRE 704 944 704 800
WIRE 704 944 656 944
WIRE 736 944 704 944
WIRE 272 960 272 928
WIRE 288 960 272 960
WIRE 368 960 368 928
WIRE 432 960 400 960
WIRE 864 960 864 800
WIRE 864 960 800 960
WIRE 896 960 864 960
WIRE 736 976 656 976
WIRE 1120 976 1120 944
WIRE 400 1008 400 960
WIRE 656 1008 656 976
WIRE 656 1136 656 1088
FLAG 464 -32 Vcc
IOPIN 464 -32 In
FLAG 464 32 Vee
IOPIN 464 32 In
FLAG 1408 384 0
FLAG 1568 384 0
FLAG 1568 224 Vee
IOPIN 1568 224 Out
FLAG 1408 224 Vcc
IOPIN 1408 224 Out
FLAG 384 208 0
FLAG 160 -128 sustraendo
IOPIN 160 -128 In
FLAG 160 16 minuendo
IOPIN 160 16 In
FLAG 672 0 diferencia
IOPIN 672 0 Out
FLAG 1376 -48 Vcc
IOPIN 1376 -48 In
FLAG 1376 16 Vee
IOPIN 1376 16 In
FLAG 1296 176 0
FLAG 1488 -16 sustraendo
IOPIN 1488 -16 Out
FLAG 384 416 Vcc
IOPIN 384 416 In
FLAG 384 480 Vee
IOPIN 384 480 In
FLAG 272 624 0
FLAG 704 432 Vcc
IOPIN 704 432 In
FLAG 704 496 Vee
IOPIN 704 496 In
FLAG 592 640 0
FLAG 160 288 diferencia
IOPIN 160 288 In
FLAG 976 0 planta
IOPIN 976 0 In
FLAG 640 160 minuendo
IOPIN 640 160 Out
FLAG 976 464 integrador
IOPIN 976 464 Out
FLAG 912 656 integrador
IOPIN 912 656 In
FLAG 1200 848 Vcc
IOPIN 1200 848 In
FLAG 1200 784 Vee
IOPIN 1200 784 In
FLAG 1120 976 0
FLAG 1296 624 Vcc
IOPIN 1296 624 In
FLAG 1296 688 Vee
IOPIN 1296 688 In
FLAG 1360 784 0
FLAG 896 960 planta
IOPIN 896 960 In
FLAG 464 912 Vcc
IOPIN 464 912 In
FLAG 464 976 Vee
IOPIN 464 976 In
FLAG 400 1008 0
FLAG 1536 816 compensador
IOPIN 1536 816 Out
FLAG 240 928 compensador
IOPIN 240 928 In
FLAG 768 928 Vcc
IOPIN 768 928 In
FLAG 768 992 Vee
IOPIN 768 992 In
FLAG 656 1136 0
SYMBOL Opamps\\TL072 464 -64 R0
SYMATTR InstName U1
SYMBOL voltage 1408 240 R0
SYMATTR InstName V1
SYMATTR Value {V_Ao}
SYMBOL voltage 1568 352 M180
WINDOW 0 24 96 Left 2
WINDOW 3 24 16 Left 2
SYMATTR InstName V2
SYMATTR Value {V_Ao}
SYMBOL res 288 -144 R90
WINDOW 0 0 56 VBottom 2
WINDOW 3 32 56 VTop 2
SYMATTR InstName R1_r
SYMATTR Value {Rr}
SYMBOL res 560 -144 R90
WINDOW 0 0 56 VBottom 2
WINDOW 3 32 56 VTop 2
SYMATTR InstName R2_r
SYMATTR Value {Rr}
SYMBOL res 288 0 R90
WINDOW 0 0 56 VBottom 2
WINDOW 3 32 56 VTop 2
SYMATTR InstName R3_r
SYMATTR Value {Rr}
SYMBOL res 400 144 R180
WINDOW 0 36 76 Left 2
WINDOW 3 36 40 Left 2
SYMATTR InstName R4_r
SYMATTR Value {Rr}
SYMBOL res 1280 -16 R90
WINDOW 0 0 56 VBottom 2
WINDOW 3 32 56 VTop 2
SYMATTR InstName R1_sk
SYMATTR Value {R_sk}
SYMBOL res 1136 -16 R90
WINDOW 0 0 56 VBottom 2
WINDOW 3 32 56 VTop 2
SYMATTR InstName R2_sk
SYMATTR Value {2*{R_sk}}
SYMBOL cap 1280 48 R0
WINDOW 0 15 12 Left 2
SYMATTR InstName C2_sk
SYMATTR Value {Cs}
SYMBOL Opamps\\TL072 1376 -80 R0
SYMATTR InstName U2
SYMBOL cap 1248 -144 R90
WINDOW 0 0 32 VBottom 2
WINDOW 3 32 32 VTop 2
SYMATTR InstName C1_sk
SYMATTR Value {Cs}
SYMBOL Opamps\\TL072 384 384 R0
SYMATTR InstName U3
SYMBOL res 448 272 R90
WINDOW 0 0 56 VBottom 2
WINDOW 3 32 56 VTop 2
SYMATTR InstName R2_g
SYMATTR Value 10k
SYMBOL res 256 480 R0
SYMATTR InstName R3_g
SYMATTR Value 10k
SYMBOL Opamps\\TL072 704 400 R0
SYMATTR InstName U4
SYMBOL res 768 288 R90
WINDOW 0 0 56 VBottom 2
WINDOW 3 32 56 VTop 2
SYMATTR InstName R5_g
SYMATTR Value 10k
SYMBOL res 576 496 R0
SYMATTR InstName R6_g
SYMATTR Value 10k
SYMBOL res 592 432 R90
WINDOW 0 0 56 VBottom 2
WINDOW 3 32 56 VTop 2
SYMATTR InstName R4_g
SYMATTR Value 10k
SYMBOL res 304 272 R90
WINDOW 0 0 56 VBottom 2
WINDOW 3 32 56 VTop 2
SYMATTR InstName R1_g
SYMATTR Value 10k
SYMBOL Opamps\\TL072 1200 880 M180
SYMATTR InstName U7
SYMBOL cap 1232 640 R90
WINDOW 0 0 32 VBottom 2
WINDOW 3 32 32 VTop 2
SYMATTR InstName C2
SYMATTR Value 1n
SYMBOL res 1104 640 R90
WINDOW 0 0 56 VBottom 2
WINDOW 3 32 56 VTop 2
SYMATTR InstName R8
SYMATTR Value 100k
SYMBOL Opamps\\TL072 1296 592 M0
SYMATTR InstName U8
SYMBOL res 1408 688 R0
SYMATTR InstName R9
SYMATTR Value 100k
SYMBOL res 1376 480 R90
WINDOW 0 0 56 VBottom 2
WINDOW 3 32 56 VTop 2
SYMATTR InstName R10
SYMATTR Value 100k
SYMBOL res 1104 848 R0
SYMATTR InstName R11
SYMATTR Value 10k
SYMBOL res 1344 688 R0
SYMATTR InstName R12
SYMATTR Value 10k
SYMBOL Circuitos2\\Bloques\\escalon 608 160 R0
SYMATTR InstName U5
SYMBOL Circuitos2\\Bloques\\ganancia 896 464 R0
SYMATTR SpiceLine K=1.4
SYMATTR InstName U6
SYMBOL Opamps\\TL072 464 880 R0
SYMATTR InstName U9
SYMBOL cap 368 864 R90
WINDOW 0 0 32 VBottom 2
WINDOW 3 32 32 VTop 2
SYMATTR InstName C1c
SYMATTR Value 1n
SYMBOL cap 496 704 R90
WINDOW 0 0 32 VBottom 2
WINDOW 3 32 32 VTop 2
SYMATTR InstName C2c
SYMATTR Value 1n
SYMBOL res 528 784 R90
WINDOW 0 0 56 VBottom 2
WINDOW 3 32 56 VTop 2
SYMATTR InstName R2c
SYMATTR Value 47k
SYMBOL res 384 944 R90
WINDOW 0 0 56 VBottom 2
WINDOW 3 32 56 VTop 2
SYMATTR InstName R1c
SYMATTR Value 270k
SYMBOL Opamps\\TL072 768 896 R0
SYMATTR InstName U11
SYMBOL res 832 784 R90
WINDOW 0 0 56 VBottom 2
WINDOW 3 32 56 VTop 2
SYMATTR InstName R4c
SYMATTR Value 10k
SYMBOL res 640 992 R0
SYMATTR InstName R5c
SYMATTR Value 10k
SYMBOL res 672 928 R90
WINDOW 0 0 56 VBottom 2
WINDOW 3 32 56 VTop 2
SYMATTR InstName R3c
SYMATTR Value 10k
TEXT 0 112 Left 2 !.param Rr=10k
TEXT 0 144 Left 2 !.param V_Ao=20
TEXT 1408 456 Left 2 !.tran 0 2m 0 uic
TEXT 912 104 Left 2 !.param Cs=10n
TEXT 912 136 Left 2 !.param R_sk=(1/(Cs*2*pi*f))
TEXT 920 192 Left 2 !.param f=1000Hz
