Version 4
SHEET 1 1688 788
WIRE -480 -512 -512 -512
WIRE -288 -512 -400 -512
WIRE -208 -512 -288 -512
WIRE -64 -512 -128 -512
WIRE 512 -512 480 -512
WIRE 624 -512 576 -512
WIRE 768 -512 624 -512
WIRE 624 -416 624 -512
WIRE 672 -416 624 -416
WIRE -288 -400 -288 -512
WIRE -240 -400 -288 -400
WIRE 768 -400 768 -512
WIRE 768 -400 736 -400
WIRE 816 -400 768 -400
WIRE -64 -384 -64 -512
WIRE -64 -384 -176 -384
WIRE 0 -384 -64 -384
WIRE 368 -384 304 -384
WIRE 480 -384 480 -512
WIRE 480 -384 448 -384
WIRE 512 -384 480 -384
WIRE 624 -384 592 -384
WIRE 672 -384 624 -384
WIRE -480 -368 -512 -368
WIRE -288 -368 -400 -368
WIRE -240 -368 -288 -368
WIRE -288 -336 -288 -368
WIRE 624 -336 624 -384
WIRE -32 -224 -80 -224
WIRE 624 -208 624 -272
WIRE -288 -176 -288 -256
WIRE 736 -128 736 -160
WIRE 896 -128 896 -160
WIRE -464 -96 -512 -96
WIRE -352 -96 -384 -96
WIRE -320 -96 -352 -96
WIRE -192 -96 -240 -96
WIRE 0 -80 -32 -80
WIRE 128 -80 80 -80
WIRE 736 0 736 -48
WIRE 896 0 896 -48
WIRE -352 48 -352 -96
WIRE -320 48 -352 48
WIRE -192 64 -192 -96
WIRE -192 64 -256 64
WIRE -176 64 -192 64
WIRE -32 64 -32 -80
WIRE -32 64 -96 64
WIRE 0 64 -32 64
WIRE -320 80 -400 80
WIRE 128 80 128 -80
WIRE 128 80 64 80
WIRE 176 80 128 80
WIRE 304 80 272 80
WIRE 0 96 -80 96
WIRE -400 112 -400 80
WIRE -80 128 -80 96
WIRE 688 128 624 128
WIRE 784 128 752 128
WIRE 624 208 624 128
WIRE 672 208 624 208
WIRE 784 208 784 128
WIRE 784 208 752 208
WIRE 928 208 912 208
WIRE 1024 208 1008 208
WIRE 1040 208 1024 208
WIRE 1152 208 1120 208
WIRE -400 240 -400 192
WIRE -80 256 -80 208
WIRE 496 320 400 320
WIRE 624 320 624 208
WIRE 624 320 576 320
WIRE 656 320 624 320
WIRE -240 336 -272 336
WIRE -128 336 -176 336
WIRE 784 336 784 208
WIRE 784 336 720 336
WIRE 896 336 784 336
WIRE 1024 336 1024 208
WIRE 1024 336 976 336
WIRE 1056 336 1024 336
WIRE 656 352 608 352
WIRE 1152 352 1152 208
WIRE 1152 352 1120 352
WIRE 1408 352 1152 352
WIRE 1056 368 1024 368
WIRE 608 384 608 352
WIRE 1024 400 1024 368
WIRE -272 416 -272 336
WIRE -240 416 -272 416
WIRE -128 416 -128 336
WIRE -128 416 -160 416
WIRE 64 416 32 416
WIRE 192 416 144 416
WIRE -368 496 -400 496
WIRE 832 512 704 512
WIRE 608 528 608 464
WIRE 1024 528 1024 480
WIRE -400 544 -400 496
WIRE -400 544 -432 544
WIRE -304 544 -304 496
WIRE -272 544 -272 416
WIRE -272 544 -304 544
WIRE -240 544 -272 544
WIRE 832 544 832 512
WIRE -128 560 -128 416
WIRE -128 560 -176 560
WIRE -96 560 -128 560
WIRE 32 560 32 416
WIRE 32 560 -16 560
WIRE 64 560 32 560
WIRE -400 576 -400 544
WIRE -384 576 -400 576
WIRE -304 576 -304 544
WIRE -240 576 -272 576
WIRE 192 576 192 416
WIRE 192 576 128 576
WIRE 224 576 192 576
WIRE 1136 576 1088 576
WIRE 64 592 -16 592
WIRE -272 624 -272 576
WIRE -16 624 -16 592
WIRE 1088 624 1088 576
WIRE 704 640 704 512
WIRE 832 640 832 624
WIRE 912 640 832 640
WIRE 832 656 832 640
WIRE -16 752 -16 704
WIRE 1088 752 1088 704
WIRE 704 768 704 720
WIRE 832 768 832 736
FLAG -208 -416 Vcc
IOPIN -208 -416 In
FLAG -208 -352 Vee
IOPIN -208 -352 In
FLAG 736 0 0
FLAG 896 0 0
FLAG 896 -160 Vee
IOPIN 896 -160 Out
FLAG 736 -160 Vcc
IOPIN 736 -160 Out
FLAG -288 -176 0
FLAG -512 -512 sustraendo
IOPIN -512 -512 In
FLAG -512 -368 minuendo
IOPIN -512 -368 In
FLAG 0 -384 diferencia
IOPIN 0 -384 Out
FLAG 704 -432 Vcc
IOPIN 704 -432 In
FLAG 704 -368 Vee
IOPIN 704 -368 In
FLAG 624 -208 0
FLAG 816 -400 sustraendo
IOPIN 816 -400 Out
FLAG -288 32 Vcc
IOPIN -288 32 In
FLAG -288 96 Vee
IOPIN -288 96 In
FLAG -400 240 0
FLAG 32 48 Vcc
IOPIN 32 48 In
FLAG 32 112 Vee
IOPIN 32 112 In
FLAG -80 256 0
FLAG -512 -96 diferencia
IOPIN -512 -96 In
FLAG 304 -384 planta
IOPIN 304 -384 In
FLAG -32 -224 minuendo
IOPIN -32 -224 Out
FLAG 304 80 integrador
IOPIN 304 80 Out
FLAG 400 320 integrador
IOPIN 400 320 In
FLAG 224 576 planta
IOPIN 224 576 In
FLAG -208 528 Vcc
IOPIN -208 528 In
FLAG -208 592 Vee
IOPIN -208 592 In
FLAG -272 624 0
FLAG 1408 352 compensador
IOPIN 1408 352 Out
FLAG -432 544 compensador
IOPIN -432 544 In
FLAG 96 544 Vcc
IOPIN 96 544 In
FLAG 96 608 Vee
IOPIN 96 608 In
FLAG -16 752 0
FLAG -512 368 Vcc
IOPIN -512 368 In
FLAG -512 304 Vee
IOPIN -512 304 In
FLAG -640 304 Vcc
IOPIN -640 304 In
FLAG -640 368 Vee
IOPIN -640 368 In
FLAG 688 304 Vcc
IOPIN 688 304 In
FLAG 688 368 Vee
IOPIN 688 368 In
FLAG 608 528 0
FLAG 1088 320 Vcc
IOPIN 1088 320 In
FLAG 1088 384 Vee
IOPIN 1088 384 In
FLAG 832 768 0
FLAG 704 768 0
FLAG 912 640 offset1
IOPIN 912 640 Out
FLAG 1024 528 0
FLAG 912 208 offset
IOPIN 912 208 In
FLAG 1088 752 0
FLAG 1136 576 offset
IOPIN 1136 576 Out
SYMBOL Opamps\\TL072 -208 -448 R0
SYMATTR InstName U1
SYMBOL voltage 736 -144 R0
SYMATTR InstName V1
SYMATTR Value {V_Ao}
SYMBOL voltage 896 -32 M180
WINDOW 0 24 96 Left 2
WINDOW 3 24 16 Left 2
SYMATTR InstName V2
SYMATTR Value {V_Ao}
SYMBOL res -384 -528 R90
WINDOW 0 0 56 VBottom 2
WINDOW 3 32 56 VTop 2
SYMATTR InstName R1
SYMATTR Value {Rr}
SYMBOL res -112 -528 R90
WINDOW 0 0 56 VBottom 2
WINDOW 3 32 56 VTop 2
SYMATTR InstName R2
SYMATTR Value {Rr}
SYMBOL res -384 -384 R90
WINDOW 0 0 56 VBottom 2
WINDOW 3 32 56 VTop 2
SYMATTR InstName R3
SYMATTR Value {Rr}
SYMBOL res -272 -240 R180
WINDOW 0 36 76 Left 2
WINDOW 3 36 40 Left 2
SYMATTR InstName R4
SYMATTR Value {Rr}
SYMBOL res 608 -400 R90
WINDOW 0 0 56 VBottom 2
WINDOW 3 32 56 VTop 2
SYMATTR InstName R5
SYMATTR Value {R_sk}
SYMBOL res 464 -400 R90
WINDOW 0 0 56 VBottom 2
WINDOW 3 32 56 VTop 2
SYMATTR InstName R6
SYMATTR Value {2*{R_sk}}
SYMBOL cap 608 -336 R0
WINDOW 0 15 12 Left 2
SYMATTR InstName C1
SYMATTR Value {Cs}
SYMBOL Opamps\\TL072 704 -464 R0
SYMATTR InstName U2
SYMBOL cap 576 -528 R90
WINDOW 0 0 32 VBottom 2
WINDOW 3 32 32 VTop 2
SYMATTR InstName C2
SYMATTR Value {Cs}
SYMBOL Opamps\\TL072 -288 0 R0
SYMATTR InstName U3
SYMBOL res -224 -112 R90
WINDOW 0 0 56 VBottom 2
WINDOW 3 32 56 VTop 2
SYMATTR InstName R7
SYMATTR Value 10k
SYMBOL res -416 96 R0
SYMATTR InstName R8
SYMATTR Value 10k
SYMBOL Opamps\\TL072 32 16 R0
SYMATTR InstName U4
SYMBOL res 96 -96 R90
WINDOW 0 0 56 VBottom 2
WINDOW 3 32 56 VTop 2
SYMATTR InstName R9
SYMATTR Value 10k
SYMBOL res -96 112 R0
SYMATTR InstName R10
SYMATTR Value 10k
SYMBOL res -80 48 R90
WINDOW 0 0 56 VBottom 2
WINDOW 3 32 56 VTop 2
SYMATTR InstName R11
SYMATTR Value 10k
SYMBOL res -368 -112 R90
WINDOW 0 0 56 VBottom 2
WINDOW 3 32 56 VTop 2
SYMATTR InstName R12
SYMATTR Value 10k
SYMBOL res 592 304 R90
WINDOW 0 0 56 VBottom 2
WINDOW 3 32 56 VTop 2
SYMATTR InstName R13
SYMATTR Value 100k
SYMBOL Circuitos2\\Bloques\\escalon -64 -224 R0
SYMATTR InstName U7
SYMBOL Circuitos2\\Bloques\\ganancia 224 80 R0
SYMATTR SpiceLine K=1.4
SYMATTR InstName U8
SYMBOL Opamps\\TL072 -208 496 R0
SYMATTR InstName U9
SYMBOL cap -304 480 R90
WINDOW 0 0 32 VBottom 2
WINDOW 3 32 32 VTop 2
SYMATTR InstName C4
SYMATTR Value 1n
SYMBOL cap -176 320 R90
WINDOW 0 0 32 VBottom 2
WINDOW 3 32 32 VTop 2
SYMATTR InstName C5
SYMATTR Value 1n
SYMBOL res -144 400 R90
WINDOW 0 0 56 VBottom 2
WINDOW 3 32 56 VTop 2
SYMATTR InstName R18
SYMATTR Value 47k
SYMBOL res -288 560 R90
WINDOW 0 0 56 VBottom 2
WINDOW 3 32 56 VTop 2
SYMATTR InstName R19
SYMATTR Value 270k
SYMBOL Opamps\\TL072 96 512 R0
SYMATTR InstName U10
SYMBOL res 160 400 R90
WINDOW 0 0 56 VBottom 2
WINDOW 3 32 56 VTop 2
SYMATTR InstName R20
SYMATTR Value 10k
SYMBOL res -32 608 R0
SYMATTR InstName R21
SYMATTR Value 10k
SYMBOL res 0 544 R90
WINDOW 0 0 56 VBottom 2
WINDOW 3 32 56 VTop 2
SYMATTR InstName R22
SYMATTR Value 10k
SYMBOL Opamps\\TL072 -512 400 M180
SYMATTR InstName U11
SYMBOL Opamps\\TL072 -640 272 R0
SYMATTR InstName U5
SYMBOL Opamps\\TL072 688 272 R0
SYMATTR InstName U6
SYMBOL res 768 192 R90
WINDOW 0 0 56 VBottom 2
WINDOW 3 32 56 VTop 2
SYMATTR InstName R14
SYMATTR Value 1Meg
SYMBOL cap 752 112 R90
WINDOW 0 0 32 VBottom 2
WINDOW 3 32 32 VTop 2
SYMATTR InstName C3
SYMATTR Value 100n
SYMBOL res 592 368 R0
SYMATTR InstName R15
SYMATTR Value 10k
SYMBOL Opamps\\TL072 1088 288 R0
SYMATTR InstName U12
SYMBOL voltage 704 624 R0
SYMATTR InstName V3
SYMATTR Value {V_Ao}
SYMBOL res 816 528 R0
SYMATTR InstName R16
SYMATTR Value 10k
SYMBOL res 816 640 R0
SYMATTR InstName R17
SYMATTR Value 1Meg
SYMBOL res 1040 496 R180
WINDOW 0 36 76 Left 2
WINDOW 3 36 40 Left 2
SYMATTR InstName R23
SYMATTR Value 10k
SYMBOL res 992 320 R90
WINDOW 0 0 56 VBottom 2
WINDOW 3 32 56 VTop 2
SYMATTR InstName R24
SYMATTR Value 10k
SYMBOL res 1024 192 R90
WINDOW 0 0 56 VBottom 2
WINDOW 3 32 56 VTop 2
SYMATTR InstName R25
SYMATTR Value 10k
SYMBOL res 1136 192 R90
WINDOW 0 0 56 VBottom 2
WINDOW 3 32 56 VTop 2
SYMATTR InstName R26
SYMATTR Value 10k
SYMBOL voltage 1088 608 R0
SYMATTR InstName V4
SYMATTR Value 0
TEXT -672 -272 Left 2 !.param Rr=10k
TEXT -672 -240 Left 2 !.param V_Ao=20
TEXT 488 56 Left 2 !.tran 0 2m 0 uic
TEXT 240 -280 Left 2 !.param Cs=10n
TEXT 240 -248 Left 2 !.param R_sk=(1/(Cs*2*pi*f))
TEXT 248 -192 Left 2 !.param f=1000Hz
