Version 4
SHEET 1 3088 1108
WIRE 2160 -176 2112 -176
WIRE 2304 -176 2240 -176
WIRE 192 -128 160 -128
WIRE 384 -128 272 -128
WIRE 464 -128 384 -128
WIRE 608 -128 544 -128
WIRE 1184 -128 1152 -128
WIRE 1296 -128 1248 -128
WIRE 1440 -128 1296 -128
WIRE -304 -64 -304 -96
WIRE -144 -64 -144 -96
WIRE 1296 -32 1296 -128
WIRE 1344 -32 1296 -32
WIRE 2304 -32 2304 -176
WIRE 2304 -32 2208 -32
WIRE 384 -16 384 -128
WIRE 432 -16 384 -16
WIRE 1440 -16 1440 -128
WIRE 1440 -16 1408 -16
WIRE 1488 -16 1440 -16
WIRE 1888 -16 1824 -16
WIRE 2000 -16 1968 -16
WIRE 2048 -16 2000 -16
WIRE 2112 -16 2112 -176
WIRE 2144 -16 2112 -16
WIRE 608 0 608 -128
WIRE 608 0 496 0
WIRE 672 0 608 0
WIRE 1040 0 976 0
WIRE 1152 0 1152 -128
WIRE 1152 0 1120 0
WIRE 1184 0 1152 0
WIRE 1296 0 1264 0
WIRE 1344 0 1296 0
WIRE 2240 0 2208 0
WIRE 192 16 160 16
WIRE 384 16 272 16
WIRE 432 16 384 16
WIRE 2240 32 2240 0
WIRE 2304 32 2304 -32
WIRE 384 48 384 16
WIRE 1296 48 1296 0
WIRE -304 64 -304 16
WIRE -144 64 -144 16
WIRE 2496 80 2448 80
WIRE 2000 128 2000 -16
WIRE 2048 128 2000 128
WIRE 2448 128 2448 80
WIRE 2304 144 2304 112
WIRE 2304 144 2112 144
WIRE 2400 144 2304 144
WIRE 2048 160 2000 160
WIRE 1296 176 1296 112
WIRE 2000 192 2000 160
WIRE 2400 192 2384 192
WIRE 384 208 384 128
WIRE 2384 256 2384 192
WIRE 2432 256 2384 256
WIRE 2448 256 2448 208
WIRE 2448 256 2432 256
WIRE 2432 272 2432 256
WIRE -160 288 -208 288
WIRE 2000 304 2000 272
WIRE 336 384 288 384
WIRE 448 384 416 384
WIRE 480 384 448 384
WIRE 608 384 560 384
WIRE 1088 400 1056 400
WIRE 1216 400 1168 400
WIRE 448 528 448 384
WIRE 480 528 448 528
WIRE 608 544 608 384
WIRE 608 544 544 544
WIRE 912 544 608 544
WIRE 1056 544 1056 400
WIRE 1056 544 992 544
WIRE 1088 544 1056 544
WIRE 480 560 400 560
WIRE 1216 560 1216 400
WIRE 1216 560 1152 560
WIRE 1376 560 1216 560
WIRE 1552 560 1472 560
WIRE 1088 576 1008 576
WIRE 400 592 400 560
WIRE 1008 608 1008 576
WIRE 400 720 400 672
WIRE 1008 736 1008 688
FLAG 464 -32 Vcc
IOPIN 464 -32 In
FLAG 464 32 Vee
IOPIN 464 32 In
FLAG -304 64 0
FLAG -144 64 0
FLAG -144 -96 Vee
IOPIN -144 -96 Out
FLAG -304 -96 Vcc
IOPIN -304 -96 Out
FLAG 384 208 0
FLAG 160 -128 sustraendo
IOPIN 160 -128 In
FLAG 160 16 minuendo
IOPIN 160 16 In
FLAG 672 0 diferencia
IOPIN 672 0 Out
FLAG 1376 -48 Vcc
IOPIN 1376 -48 In
FLAG 1376 16 Vee
IOPIN 1376 16 In
FLAG 1296 176 0
FLAG 1488 -16 sustraendo
IOPIN 1488 -16 Out
FLAG 512 512 Vcc
IOPIN 512 512 In
FLAG 512 576 Vee
IOPIN 512 576 In
FLAG 400 720 0
FLAG 1120 528 Vcc
IOPIN 1120 528 In
FLAG 1120 592 Vee
IOPIN 1120 592 In
FLAG 1008 736 0
FLAG 288 384 diferencia
IOPIN 288 384 In
FLAG 976 0 planta
IOPIN 976 0 In
FLAG -160 288 minuendo
IOPIN -160 288 Out
FLAG 1552 560 integrador
IOPIN 1552 560 Out
FLAG 1824 -16 integrador
IOPIN 1824 -16 In
FLAG 2080 176 Vcc
IOPIN 2080 176 In
FLAG 2080 112 Vee
IOPIN 2080 112 In
FLAG 2000 304 0
FLAG 2176 -48 Vcc
IOPIN 2176 -48 In
FLAG 2176 16 Vee
IOPIN 2176 16 In
FLAG 2240 112 0
FLAG 2432 272 0
FLAG 2496 80 planta
IOPIN 2496 80 In
SYMBOL Opamps\\TL072 464 -64 R0
SYMATTR InstName U1
SYMBOL voltage -304 -80 R0
SYMATTR InstName V1
SYMATTR Value {V_Ao}
SYMBOL voltage -144 32 M180
WINDOW 0 24 96 Left 2
WINDOW 3 24 16 Left 2
SYMATTR InstName V2
SYMATTR Value {V_Ao}
SYMBOL res 288 -144 R90
WINDOW 0 0 56 VBottom 2
WINDOW 3 32 56 VTop 2
SYMATTR InstName R1_r
SYMATTR Value {Rr}
SYMBOL res 560 -144 R90
WINDOW 0 0 56 VBottom 2
WINDOW 3 32 56 VTop 2
SYMATTR InstName R2_r
SYMATTR Value {Rr}
SYMBOL res 288 0 R90
WINDOW 0 0 56 VBottom 2
WINDOW 3 32 56 VTop 2
SYMATTR InstName R3_r
SYMATTR Value {Rr}
SYMBOL res 400 144 R180
WINDOW 0 36 76 Left 2
WINDOW 3 36 40 Left 2
SYMATTR InstName R4_r
SYMATTR Value {Rr}
SYMBOL res 1136 -16 R90
WINDOW 0 0 56 VBottom 2
WINDOW 3 32 56 VTop 2
SYMATTR InstName R1_sk
SYMATTR Value {R_sk}
SYMBOL res 1280 -16 R90
WINDOW 0 0 56 VBottom 2
WINDOW 3 32 56 VTop 2
SYMATTR InstName R2_sk
SYMATTR Value {2*{R_sk}}
SYMBOL cap 1280 48 R0
WINDOW 0 15 12 Left 2
SYMATTR InstName C2_sk
SYMATTR Value {Cs}
SYMBOL Opamps\\TL072 1376 -80 R0
SYMATTR InstName U2
SYMBOL cap 1248 -144 R90
WINDOW 0 0 32 VBottom 2
WINDOW 3 32 32 VTop 2
SYMATTR InstName C1_sk
SYMATTR Value {Cs}
SYMBOL Opamps\\TL072 512 480 R0
SYMATTR InstName U3
SYMBOL res 576 368 R90
WINDOW 0 0 56 VBottom 2
WINDOW 3 32 56 VTop 2
SYMATTR InstName R2_g
SYMATTR Value 10k
SYMBOL res 384 576 R0
SYMATTR InstName R3_g
SYMATTR Value 1k
SYMBOL Opamps\\TL072 1120 496 R0
SYMATTR InstName U4
SYMBOL res 1184 384 R90
WINDOW 0 0 56 VBottom 2
WINDOW 3 32 56 VTop 2
SYMATTR InstName R5_g
SYMATTR Value 10k
SYMBOL res 992 592 R0
SYMATTR InstName R6_g
SYMATTR Value 1k
SYMBOL res 1008 528 R90
WINDOW 0 0 56 VBottom 2
WINDOW 3 32 56 VTop 2
SYMATTR InstName R4_g
SYMATTR Value 10k
SYMBOL res 432 368 R90
WINDOW 0 0 56 VBottom 2
WINDOW 3 32 56 VTop 2
SYMATTR InstName R1_g
SYMATTR Value 10k
SYMBOL Opamps\\TL072 2080 208 M180
SYMATTR InstName U7
SYMBOL cap 2112 -32 R90
WINDOW 0 0 32 VBottom 2
WINDOW 3 32 32 VTop 2
SYMATTR InstName C2
SYMATTR Value 1n
SYMBOL res 1984 -32 R90
WINDOW 0 0 56 VBottom 2
WINDOW 3 32 56 VTop 2
SYMATTR InstName R8
SYMATTR Value 100k
SYMBOL Opamps\\TL072 2176 -80 M0
SYMATTR InstName U8
SYMBOL res 2288 16 R0
SYMATTR InstName R9
SYMATTR Value 100k
SYMBOL res 2256 -192 R90
WINDOW 0 0 56 VBottom 2
WINDOW 3 32 56 VTop 2
SYMATTR InstName R10
SYMATTR Value 100k
SYMBOL res 1984 176 R0
SYMATTR InstName R11
SYMATTR Value 10k
SYMBOL res 2224 16 R0
SYMATTR InstName R12
SYMATTR Value 10k
SYMBOL e 2448 112 R0
SYMATTR InstName E1
SYMATTR Value Laplace=(s+3681)/(s+2.145e04)
SYMBOL Circuitos2\\Bloques\\escalon -192 288 R0
SYMATTR InstName U5
SYMBOL Circuitos2\\Bloques\\ganancia 1424 560 R0
SYMATTR SpiceLine K=1.43
SYMATTR InstName U6
TEXT 0 112 Left 2 !.param Rr=10k
TEXT 0 144 Left 2 !.param V_Ao=20
TEXT -304 136 Left 2 !.tran 2m uic
TEXT 912 104 Left 2 !.param Cs=10n
TEXT 912 136 Left 2 !.param R_sk=(1/(Cs*2*pi*f))
TEXT 920 192 Left 2 !.param f=1000Hz
