Version 4
SHEET 1 880 680
WIRE 176 -16 144 -16
WIRE 288 -16 240 -16
WIRE 432 -16 288 -16
WIRE 288 80 288 -16
WIRE 336 80 288 80
WIRE 432 96 432 -16
WIRE 432 96 400 96
WIRE 480 96 432 96
WIRE -32 112 -272 112
WIRE 32 112 -32 112
WIRE 144 112 144 -16
WIRE 144 112 112 112
WIRE 176 112 144 112
WIRE 288 112 256 112
WIRE 336 112 288 112
WIRE 288 160 288 112
WIRE -624 176 -624 144
WIRE -464 176 -464 144
WIRE -272 192 -272 112
WIRE 288 288 288 224
WIRE -624 304 -624 256
WIRE -464 304 -464 256
WIRE -272 336 -272 272
FLAG 368 64 Vcc
IOPIN 368 64 In
FLAG 368 128 Vee
IOPIN 368 128 In
FLAG 288 288 0
FLAG 480 96 sustraendo
IOPIN 480 96 Out
FLAG -32 112 planta
IOPIN -32 112 In
FLAG -272 336 0
FLAG -624 304 0
FLAG -464 304 0
FLAG -464 144 Vee
IOPIN -464 144 Out
FLAG -624 144 Vcc
IOPIN -624 144 Out
SYMBOL res 128 96 R90
WINDOW 0 0 56 VBottom 2
WINDOW 3 32 56 VTop 2
SYMATTR InstName R1
SYMATTR Value {R_sk}
SYMBOL res 272 96 R90
WINDOW 0 0 56 VBottom 2
WINDOW 3 32 56 VTop 2
SYMATTR InstName R2
SYMATTR Value (2{R_sk})
SYMBOL cap 272 160 R0
WINDOW 0 15 12 Left 2
SYMATTR InstName C1
SYMATTR Value {Cs}
SYMBOL Opamps\\TL072 368 32 R0
SYMATTR InstName U1
SYMBOL cap 240 -32 R90
WINDOW 0 0 32 VBottom 2
WINDOW 3 32 32 VTop 2
SYMATTR InstName C2
SYMATTR Value {Cs}
SYMBOL voltage -272 176 R0
WINDOW 123 24 124 Left 2
WINDOW 39 0 0 Left 0
SYMATTR Value2 AC 1
SYMATTR InstName V1
SYMATTR Value ""
SYMBOL voltage -624 160 R0
SYMATTR InstName V2
SYMATTR Value {V_Ao}
SYMBOL voltage -464 272 M180
WINDOW 0 24 96 Left 2
WINDOW 3 24 16 Left 2
SYMATTR InstName V3
SYMATTR Value {V_Ao}
TEXT -96 216 Left 2 !.param Cs=10nF
TEXT -96 248 Left 2 !.param R_sk=(1/(Cs*2*pi*f))
TEXT -88 304 Left 2 !.param f=1000Hz
TEXT -8 384 Left 2 !.ac dec 300 10Hz 100kHz
TEXT -624 352 Left 2 !.param V_Ao=15
